*Heading
** Job name: SHELL_NECK Model name: SHELL_NECK_EX
** Generated by: Abaqus/CAE 2020
*Preprint, echo=NO, model=NO, history=NO, contact=NO
**
** PARTS
**
*Part, name=Part-1
*Node
      1,         -10.,   34.9951897,           0.
      2,           0.,   34.9951897,           0.
      3,           0.,         100.,           0.
      4,         -10.,         100.,           0.
      5,           0.,         28.5,           0.
      6,        -6.25,         28.5,           0.
      7,        -6.25,           0.,           0.
      8,           0.,           0.,           0.
      9,          10.,   34.9951897,           0.
     10,          10.,         100.,           0.
     11,         6.25,         28.5,           0.
     12,         6.25,           0.,           0.
     13,          -8.,   34.9951897,           0.
     14,          -6.,   34.9951897,           0.
     15,          -4.,   34.9951897,           0.
     16,          -2.,   34.9951897,           0.
     17,           0.,   36.9650345,           0.
     18,           0.,   38.9348755,           0.
     19,           0.,   40.9047203,           0.
     20,           0.,   42.8745613,           0.
** ... 552 like lines cut
*Element, type=S4R
  1,   1,  13, 189,  84
  2,  13,  14, 190, 189
  3,  14,  15, 191, 190
  4,  15,  16, 192, 191
  5,  16,   2,  17, 192
  6,  84, 189, 193,  83
  7, 189, 190, 194, 193
  8, 190, 191, 195, 194
  9, 191, 192, 196, 195
 10, 192,  17,  18, 196
 11,  83, 193, 197,  82
 12, 193, 194, 198, 197
 13, 194, 195, 199, 198
 14, 195, 196, 200, 199
 15, 196,  18,  19, 200
 16,  82, 197, 201,  81
 17, 197, 198, 202, 201
 18, 198, 199, 203, 202
 19, 199, 200, 204, 203
 20, 200,  19,  20, 204
** ... 490 like lines cut
*Nset, nset=BODY, generate
   1,  572,    1
*Elset, elset=BODY, generate
   1,  510,    1
*Orientation, name=Ori-1
1., 0., 0., 0., 1., 0.
3, 0.
** Section: Section-1
*Shell Section, elset=BODY, material=AA2024-O-UMAT, orientation=Ori-1
1., 5
*Transverse Shear Stiffness
22399.7, 22399.7, 0.
*End Part
**  
**
** ASSEMBLY
**
*Assembly, name=Assembly
**  
*Instance, name=Part-1-1, part=Part-1
*End Instance
**  
*Node
      1,           0.,         100.,           0.
*Nset, nset=CENTER, instance=Part-1-1
   7,   8,  12, 102, 103, 104, 105, 163, 164, 165, 166
*Nset, nset=GRIP-RP
 1,
*Nset, nset=GRIP_BODY, instance=Part-1-1
   1,   2,   3,   4,   9,  10,  13,  14,  15,  16,  17,  18,  19,  20,  21,  22
  23,  24,  25,  26,  27,  28,  29,  30,  31,  32,  33,  34,  35,  36,  37,  38
  39,  40,  41,  42,  43,  44,  45,  46,  47,  48,  49,  50,  51,  52,  53,  54
  55,  56,  57,  58,  59,  60,  61,  62,  63,  64,  65,  66,  67,  68,  69,  70
  71,  72,  73,  74,  75,  76,  77,  78,  79,  80,  81,  82,  83,  84, 119, 120
 121, 122, 123, 124, 125, 126, 127, 128, 129, 130, 131, 132, 133, 134, 135, 136
 137, 138, 139, 140, 141, 142, 143, 144, 145, 146, 147, 148, 149, 150, 151, 152
 153, 154, 155, 156, 157, 158, 189, 190, 191, 192, 193, 194, 195, 196, 197, 198
 199, 200, 201, 202, 203, 204, 205, 206, 207, 208, 209, 210, 211, 212, 213, 214
 215, 216, 217, 218, 219, 220, 221, 222, 223, 224, 225, 226, 227, 228, 229, 230
 231, 232, 233, 234, 235, 236, 237, 238, 239, 240, 241, 242, 243, 244, 245, 246
 247, 248, 249, 250, 251, 252, 253, 254, 255, 256, 257, 258, 259, 260, 261, 262
 263, 264, 265, 266, 267, 268, 269, 270, 271, 272, 273, 274, 275, 276, 277, 278
 279, 280, 281, 282, 283, 284, 285, 286, 287, 288, 289, 290, 291, 292, 293, 294
 295, 296, 297, 298, 299, 300, 301, 302, 303, 304, 305, 306, 307, 308, 309, 310
 311, 312, 313, 314, 315, 316, 369, 370, 371, 372, 373, 374, 375, 376, 377, 378
 379, 380, 381, 382, 383, 384, 385, 386, 387, 388, 389, 390, 391, 392, 393, 394
 395, 396, 397, 398, 399, 400, 401, 402, 403, 404, 405, 406, 407, 408, 409, 410
 411, 412, 413, 414, 415, 416, 417, 418, 419, 420, 421, 422, 423, 424, 425, 426
 427, 428, 429, 430, 431, 432, 433, 434, 435, 436, 437, 438, 439, 440, 441, 442
** ... 4 like lines cut
*Elset, elset=GRIP_BODY, instance=Part-1-1
   1,   2,   3,   4,   5,   6,   7,   8,   9,  10,  11,  12,  13,  14,  15,  16
  17,  18,  19,  20,  21,  22,  23,  24,  25,  26,  27,  28,  29,  30,  31,  32
  33,  34,  35,  36,  37,  38,  39,  40,  41,  42,  43,  44,  45,  46,  47,  48
  49,  50,  51,  52,  53,  54,  55,  56,  57,  58,  59,  60,  61,  62,  63,  64
  65,  66,  67,  68,  69,  70,  71,  72,  73,  74,  75,  76,  77,  78,  79,  80
  81,  82,  83,  84,  85,  86,  87,  88,  89,  90,  91,  92,  93,  94,  95,  96
  97,  98,  99, 100, 101, 102, 103, 104, 105, 106, 107, 108, 109, 110, 111, 112
 113, 114, 115, 116, 117, 118, 119, 120, 121, 122, 123, 124, 125, 126, 127, 128
 129, 130, 131, 132, 133, 134, 135, 136, 137, 138, 139, 140, 141, 142, 143, 144
 145, 146, 147, 148, 149, 150, 151, 152, 153, 154, 155, 156, 157, 158, 159, 160
 161, 162, 163, 164, 165, 236, 237, 238, 239, 240, 241, 242, 243, 244, 245, 246
 247, 248, 249, 250, 251, 252, 253, 254, 255, 256, 257, 258, 259, 260, 261, 262
 263, 264, 265, 266, 267, 268, 269, 270, 271, 272, 273, 274, 275, 276, 277, 278
 279, 280, 281, 282, 283, 284, 285, 286, 287, 288, 289, 290, 291, 292, 293, 294
 295, 296, 297, 298, 299, 300, 301, 302, 303, 304, 305, 306, 307, 308, 309, 310
 311, 312, 313, 314, 315, 316, 317, 318, 319, 320, 321, 322, 323, 324, 325, 326
 327, 328, 329, 330, 331, 332, 333, 334, 335, 336, 337, 338, 339, 340, 341, 342
 343, 344, 345, 346, 347, 348, 349, 350, 351, 352, 353, 354, 355, 356, 357, 358
 359, 360, 361, 362, 363, 364, 365, 366, 367, 368, 369, 370, 371, 372, 373, 374
 375, 376, 377, 378, 379, 380, 381, 382, 383, 384, 385, 386, 387, 388, 389, 390
 391, 392, 393, 394, 395, 396, 397, 398, 399, 400
** Constraint: Constraint-1
*Rigid Body, ref node=GRIP-RP, elset=GRIP_BODY
*End Assembly
** 
** MATERIALS
** 
*Material, name=AA2024-O-ABA
*Density
 2.78e-09,
*Elastic
71500., 0.33
*Plastic
 38.1482,     0.
 54.6753, 0.0005
 60.0903,  0.001
 64.2632, 0.0015
 67.8234,  0.002
 70.9999, 0.0025
 73.9055,  0.003
 76.6053, 0.0035
 79.1408,  0.004
 81.5404, 0.0045
 83.8244,  0.005
  86.008, 0.0055
 88.1031,  0.006
  90.119, 0.0065
 92.0631,  0.007
 93.9418, 0.0075
 95.7604,  0.008
 97.5231, 0.0085
 99.2339,  0.009
 100.896, 0.0095
** ... 1981 like lines cut
*Porous Metal Plasticity, relative density=1.
 1.5,   1., 2.25
*Porous Failure Criteria
        0.13,         0.12
*Void Nucleation
 0.3,  0.1, 0.05
*Material, name=AA2024-O-UMAT
*Density
 2.78e-09,
*Depvar, delete=75
     75,
*User Material, constants=60
0.,     1.,     6.,    -1.,     1.,     2., 71500.,   0.33
  0.612,  347.7,     0.,  0.347,  252.1, 153.78,   44.2,     0.
     0.,     0.,     0.,     0.,     0.,     0.,     0.,     0.
     0.,     0.,     0.,     0.,     0.,     0.,     0.,     0.
     0.,     0.,     0.,     0.,     0.,     0.,     0.,     0.
     0.,     0.,     0.,     0.,     0.,     0.,     0.,     0.
     0.,     0.,    1.5,     1.,   2.25,     0.,   0.13,   0.12
    0.3,    0.1,   0.05,     0.
** ----------------------------------------------------------------
** 
** STEP: TENS
** 
*Step, name=TENS, nlgeom=YES
*Dynamic, Explicit
, 0.01
*Bulk Viscosity
0.06, 1.2
** 
** BOUNDARY CONDITIONS
** 
** Name: BC-1 Type: Symmetry/Antisymmetry/Encastre
*Boundary
CENTER, YSYMM
** Name: BC-2 Type: Velocity/Angular velocity
*Boundary, type=VELOCITY
GRIP-RP, 1, 1
GRIP-RP, 2, 2, 800.
GRIP-RP, 3, 3
** 
** OUTPUT REQUESTS
** 
*Restart, write, number interval=1, time marks=NO
** 
** FIELD OUTPUT: F-Output-1
** 
*Output, field, number interval=100
*Node Output
A, RF, U, V
*Element Output, directions=YES
EVF, LE, PE, PEEQ, PEEQVAVG, PEVAVG, S, SDV, SVAVG, TRIAX
*Contact Output
CSTRESS, 
** 
** FIELD OUTPUT: F-Output-2
** 
*Element Output, directions=YES
VVF, VVFG, VVFN
** 
** HISTORY OUTPUT: H-Output-1
** 
*Output, history, variable=PRESELECT
*End Step
