*Heading
** Job name: TR1180_TENS Model name: TR1180_UTENS
** Generated by: Abaqus/CAE 2020
*Preprint, echo=NO, model=NO, history=NO, contact=NO
**
** PARTS
**
*Part, name=SPECIMEN
*Node
      1,  -4.56657743,        -160.,           0.
      2,  -3.56657767,        -160.,           0.
      3,  -2.56657767,        -160.,           0.
      4,  -1.56657755,        -160.,           0.
      5, -0.566577554,        -160.,           0.
      6,  0.433422416,        -160.,           0.
      7,   1.43342245,        -160.,           0.
      8,   2.43342233,        -160.,           0.
      9,   3.43342233,        -160.,           0.
     10,   4.43342257,        -160.,           0.
     11,   5.43342257,        -160.,           0.
     12,   6.43342257,        -160.,           0.
     13,   7.43342257,        -160.,           0.
     14,   8.43342209,        -160.,           0.
     15,   9.43342209,        -160.,           0.
     16,   10.4334221,        -160.,           0.
     17,   11.4334221,        -160.,           0.
     18,   12.4334221,        -160.,           0.
     19,   13.4334221,        -160.,           0.
     20,   14.4334221,        -160.,           0.
** ... 20812 like lines cut
*Element, type=C3D8R
    1,    85,    86,   107,   106,     1,     2,    23,    22
    2,    86,    87,   108,   107,     2,     3,    24,    23
    3,    87,    88,   109,   108,     3,     4,    25,    24
    4,    88,    89,   110,   109,     4,     5,    26,    25
    5,    89,    90,   111,   110,     5,     6,    27,    26
    6,    90,    91,   112,   111,     6,     7,    28,    27
    7,    91,    92,   113,   112,     7,     8,    29,    28
    8,    92,    93,   114,   113,     8,     9,    30,    29
    9,    93,    94,   115,   114,     9,    10,    31,    30
   10,    94,    95,   116,   115,    10,    11,    32,    31
   11,    95,    96,   117,   116,    11,    12,    33,    32
   12,    96,    97,   118,   117,    12,    13,    34,    33
   13,    97,    98,   119,   118,    13,    14,    35,    34
   14,    98,    99,   120,   119,    14,    15,    36,    35
   15,    99,   100,   121,   120,    15,    16,    37,    36
   16,   100,   101,   122,   121,    16,    17,    38,    37
   17,   101,   102,   123,   122,    17,    18,    39,    38
   18,   102,   103,   124,   123,    18,    19,    40,    39
   19,   103,   104,   125,   124,    19,    20,    41,    40
   20,   104,   105,   126,   125,    20,    21,    42,    41
** ... 14800 like lines cut
*Nset, nset=_PICKEDSET56, internal, generate
     1,  20832,      1
*Elset, elset=_PICKEDSET56, internal, generate
     1,  14820,      1
*Orientation, name=Ori-1
          1.,           0.,           0.,           0.,           1.,           0.
3, -90.
** Section: Section-1-_PICKEDSET56
*Solid Section, elset=_PICKEDSET56, orientation=Ori-1, controls=EC-1, material=TR1180
,
*End Part
**  
**
** ASSEMBLY
**
*Assembly, name=Assembly
**  
*Instance, name=SPECIMEN-1, part=SPECIMEN
*End Instance
**  
*Node
      1,   5.43342257,          85.,  0.600000024
      2,   5.43342257,        -160.,  0.600000024
*Elset, elset=L_GRIP, instance=SPECIMEN-1, generate
    1,  5100,     1
*Nset, nset=P1
 1,
*Nset, nset=P2
 2,
*Elset, elset=U_GRIP, instance=SPECIMEN-1, generate
  9721,  14820,      1
*Nset, nset=_PICKEDSET9, internal
 1,
*Nset, nset=_PICKEDSET10, internal
 2,
*Nset, nset=_PickedSet11, internal
 1,
*Nset, nset=_PickedSet12, internal
 2,
** Constraint: RigidBody-1
*Rigid Body, ref node=_PickedSet11, elset=U_GRIP
** Constraint: RigidBody-2
*Rigid Body, ref node=_PickedSet12, elset=L_GRIP
*End Assembly
** 
** ELEMENT CONTROLS
** 
*Section Controls, name=EC-1, ELEMENT DELETION=YES, hourglass=ENHANCED
1., 1., 1.
*Amplitude, name=AMP-1
             0.,              0.,              1.,              1.
** 
** MATERIALS
** 
*Material, name=TR1180
*Density
 7.8e-09,
*Depvar, delete=55
     55,
*User Material, constants=55
0.,     4.,     1.,     5.,     1.,     2.,195620.,   0.33
  1946.,  0.016,   0.15,     0.,     0.,     0.,     0.,     0.
     0.,     0.,     0.,     0.,     0.,     0.,     0.,     0.
     0.,     0.,     0.,     0.,     0.,     0.,     0.,     6.
     1.,     1.,  0.998,  0.982,  1.005,  1.002,     1.,  1.002
  0.997,  0.967,  1.039,  0.998,  1.003,  0.997,  1.007,     1.
  1.002,   0.99,   2.09,     0.,     0.,     0.,     0.
** 
** BOUNDARY CONDITIONS
** 
** Name: Disp-BC-1 Type: Displacement/Rotation
*Boundary
P1, 1, 1
** Name: Disp-BC-2 Type: Displacement/Rotation
*Boundary
P1, 2, 2
** Name: Disp-BC-3 Type: Displacement/Rotation
*Boundary
P1, 3, 3
** Name: Disp-BC-4 Type: Displacement/Rotation
*Boundary
P1, 4, 4
** Name: Disp-BC-5 Type: Displacement/Rotation
*Boundary
P1, 5, 5
** Name: Disp-BC-6 Type: Displacement/Rotation
*Boundary
P1, 6, 6
** ----------------------------------------------------------------
** 
** STEP: Step-1
** 
*Step, name=Step-1, nlgeom=YES
*Dynamic, Explicit
, 0.01
*Bulk Viscosity
0.06, 1.2
** Mass Scaling: Semi-Automatic
**               Whole Model
*Fixed Mass Scaling, dt=1e-06, type=below min
** 
** BOUNDARY CONDITIONS
** 
** Name: Vel-BC-1 Type: Velocity/Angular velocity
*Boundary, type=VELOCITY
P2, 2, 2, -1500.
** 
** OUTPUT REQUESTS
** 
*Restart, write, number interval=1, time marks=NO
** 
** FIELD OUTPUT: F-Output-1
** 
*Output, field
*Element Output, directions=YES
LE, PE, PEEQ, S, SDV, STATUS
** 
** FIELD OUTPUT: F-Output-2
** 
*Node Output
RF, U
** 
** HISTORY OUTPUT: H-Output-1
** 
*Output, history, variable=PRESELECT, frequency=1
*End Step
